<?xml version="1.0" encoding="UTF-8"?>

<!-- 
Copyright (C) 2024 TOYOTA MOTOR CORPORATION. ALL RIGHTS RESERVED.
SPDX-License-Identifier: CC-BY-4.0
-->

<routes xmlns:xsi="http://www.w3.org/2001/XMLSchema-instance" xsi:noNamespaceSchemaLocation="http://sumo.dlr.de/xsd/routes_file.xsd">
<!-- begin="7200.0" end="9000.0" -->
    <vehicle id="23929" depart="7200.07" departLane="random" departPos="last" departSpeed="avg" insertionChecks="none">
        <route edges="121072788 -43684236#18 -43684236#17 -43684236#16 -43684236#14 900324747#0 900324747#1 900324747#2 900324747#3 900324747#4 900324789#0 900324789#1 900324789#2 900324791#0 900324791#1 900324791#2 900324791#3 900324791#4 900324791#5 900324791#6 900324808#1 900324808#2 41947660#1 41947660#2 902969908#0 902969908#1 902969908#2 902969908#3 902969908#4 902969908#5 -902970034#0 -200375358#12 -200375358#11 -200375358#9 -200375358#8 -200375358#7 -200375358#6 -200375358#5 -200375358#4 -200375358#3 -200375358#2 -200375358#1 -200375358#0 -648190636#0 -648190637#9 -648190637#8 -648190637#7 -648190637#6 -648190637#5 -648190637#4 -648190637#3 -648190637#2 -648190637#1 -648190637#0 -43677350 -200375354#10 -200375354#9 -200375354#8 -200375354#7 -200375354#5"/>
    </vehicle>
    <vehicle id="23930" depart="7200.73" departLane="random" departPos="last" departSpeed="avg" insertionChecks="none">
        <route edges="902969945#0 902969945#1 902969941#0 902969941#1 902969941#2 902969941#3 900324809#1 49684470#1 49684470#2"/>
    </vehicle>
    <vehicle id="23931" depart="7201.62" departLane="random" departPos="last" departSpeed="avg" insertionChecks="none">
        <route edges="-43998450 -796879782#3 -796879782#2 -796879782#1 946037287#0 946037287#1 946037287#2 946037287#3 946037287#5 946037287#7 946037287#8 946037287#9 946037287#10 946037287#11 946037287#12 946037287#14 1126965186#2 1126965186#3 1126965188#0 1126965188#1 1126965188#2 796879781#1 796879781#2 796879781#3 796879781#4 796879781#5 796879781#6 796879781#7 796879781#8 796879781#9 946535868 946535869#1 946535867#3 946535867#4 -244655611#8 -244655611#6 -244655611#5 -244655611#4 -244655611#3 -244655611#1 -758633400#3 -758633400#1 -758633400#0"/>
    </vehicle>
    <vehicle id="23932" depart="7202.43" departLane="random" departPos="last" departSpeed="avg" insertionChecks="none">
        <route edges="902969945#0 902969945#1 902969941#0 902969941#1 902969941#2 902969941#3 900324809#1 49684470#1 49684470#2 435601542#0 435601542#1 435601542#2"/>
    </vehicle>
    <vehicle id="23933" depart="7202.70" departLane="random" departPos="last" departSpeed="avg" insertionChecks="none">
        <route edges="304370789#7 304370789#8 304370789#9 304370789#10 304370789#11 304370789#12 304370789#13 304370789#14 304370789#15 304370789#16 304370789#17 779233770#0 779233770#1 779233770#2 779233770#3 779233770#4 779233770#5 779233770#6 779233768#0 779233768#1 758611303 304370790#1 304370790#2 304370790#3 639674368#1 639674368#3 639674372#0 639674372#1 647937772#0 647937772#1 647937772#2 641820152#0 641820152#1 641820152#2 641820152#3 641820152#6 641820152#8 641820152#10 641820152#12 641820152#13 641820152#14 641820152#15 639966887#1 639966887#2 639966887#3 639966887#4 639966887#5 639966887#6 639966887#7 758517056 758494319#0 758494319#2 758494319#3 758494319#4 758494319#5 758494319#6 758494319#8 758494319#9 758494319#10 388180901#1 388180901#2 388180901#3 388180901#4 388180901#5 388180901#7 388180901#8 388180901#11 388180901#12 388180901#13 388180901#14 388180901#15 388180901#16 388180901#17 198401744#1 198401744#2 198401744#4 198401744#5 198401744#6 198401744#7 198401744#8 198401744#9 198401744#10 961596474#0 961596474#1 961596474#2 961596474#3 961596474#4 961596474#5 961596474#6 961596466#0 961596466#1 961596466#2 961596466#3 961596466#4 310476722#0 310476722#1 310476722#2 310476722#3 310476722#4 310476722#5 310476722#6 310476722#8 961596465 140005334#0 749560195 165021910#1 165021910#2 165021910#3 165021910#4 165021910#5 165021910#6 406705728#0 406705728#2 406705728#3 406705728#4 406705728#5 406705728#6 406705728#9 406705728#10 406705728#11 406705728#12 406705728#13 406705728#14 144893877#6 144893877#7 144893877#8 144893877#9 144893877#10 144893877#12 144893877#14 144893877#15 144893877#18 144893877#20 144893877#21 144893877#22 144893877#23 144893877#24 144893877#25 144893877#26 311076726#1 311076726#2 311076726#3 311076726#4 347945813#1 347945813#2 347945813#3 347945813#4 347945813#5 347945813#6 -100571337#6 -100571337#5 -100571337#4 -100571337#3 -100571337#1 -100571337#0 -144860848#5 -144860848#3 -144860848#1 -144860848#0"/>
    </vehicle>
    <vehicle id="23934" depart="7203.06" departLane="random" departPos="last" departSpeed="avg" insertionChecks="none">
        <route edges="755555164 571505107#1 755555177"/>
    </vehicle>
    <vehicle id="23935" depart="7203.47" departLane="random" departPos="last" departSpeed="avg" insertionChecks="none">
        <route edges="183680219#6 183680219#7 183680219#9 183680219#11 183680219#12 183680219#16 183680219#19 183680219#21 183680219#22 183680216#1 183680216#2 183680216#3 183680216#4 183680216#7 183680216#9"/>
    </vehicle>
    <vehicle id="23936" depart="7204.15" departLane="random" departPos="last" departSpeed="avg" insertionChecks="none">
        <route edges="144589944 45235864#1 45235864#2 45235864#3 45235864#4 45235864#5 45235864#6 45235864#7 45235864#8 45235864#9 45235864#11 45235864#12 45235864#13 45235864#14 45235864#15 45235864#18 45235864#19 45235864#20 45235864#21 45235864#22 45235864#23 45235864#24 45235864#25 45235864#26 45235864#27 903746510#0 903746510#1 903746510#2 903746510#3 903746510#4 379345232#1 379345232#2 379345232#3 379345232#4 379345232#5 379345232#6 379345232#7 379345232#8 379345232#9 379345232#10 379345232#11 379345232#13 379345232#15 379345232#16 379345232#17 379345232#18 379345232#19 379345232#20 379345232#22 379345232#24 49395294 49395297#0 49395297#1 51541508#0 51541508#1 51541508#2 51541508#4 51541508#5 51541508#6 51541508#10 57359977#0 57359977#2 57359977#4 57359977#5 49478326#9 49478326#11 49478326#12 49478326#13 49478326#14 49478326#15 49478326#16 49478326#17 49478326#19 721121517#10 721121517#11 721121517#12 721121517#13 721121517#14 721121517#15 721121517#16 721121517#17 721121517#18 721121517#19 721121517#20 721121517#22 721121517#23 721121517#24 721121517#25 41422062#10 41422062#12 41422062#14 41422062#16 41422062#17 41422062#19 41422062#21 41422062#22 41422062#24 41422062#26 41422062#27 41422062#28 41422062#29 41422062#31 41422062#35 41422062#37 41422062#39 41422062#42 41422062#43 41422062#46 41422062#49 41422062#51 41422062#53 41422062#55 41422062#57 41422062#60 56452356 56452355#0 56452355#2 49131748#17 49131748#19 49131748#20 406705728#9 406705728#10 406705728#11 406705728#12 406705728#13"/>
    </vehicle>
    <vehicle id="23937" depart="7204.26" departLane="random" departPos="last" departSpeed="avg" insertionChecks="none">
        <route edges="451496627#1 121072791 363894827#0 363894827#2 363894827#3 751436973#0 751436973#2 -751436975#4 -751436975#3 -751436975#2 -751436975#0 -986647797 -986647798#7 -986647798#6 -986647798#5 -986647798#4 648474718#2 648474718#3 648474718#4 648474718#5 648474718#6 648474718#7 900324819 972706826#0 88222478 50071368#2 50071368#3 49131750#0 49131750#1 99148462 828688421 828689152#0 828689152#1 828689152#2 641820145#0 26186663#10 26186663#12 26186663#14 26186663#16 26186663#17 43648828#11 -656884740#47 -656884740#44 -656884740#43 -656884740#41 -656884740#39 -656884740#38 -656884740#36 -656884740#34 -656884740#32 -656884740#28 -656884740#25 -656884740#24 -656884740#22 -656884740#19 -656884740#17 -656884740#16 -656884740#15 -656884740#13 -656884740#11 -656884740#9 -656884740#7 -656884740#5 -656884740#4 -656884740#3 -656884740#1 44354133#0 44354133#2 747491254#0 747491254#2 747491254#4 747491254#6 747491254#7 747491254#8 747491254#10 747491254#12 747491254#13 747491254#14 747491254#16 747491254#17 747491254#18 747491254#19 747491254#23 747491254#25 747491254#26 747491254#27 747491254#28 747491254#29 747491254#30 747491254#31 747491254#32 747491254#33 747491254#34 747491254#35 747491254#37 747491254#39 396529514#0 396529514#1 379353061#1 379353061#3 379353061#5 379353061#7 379353061#8 379353061#9 379353061#11 379353061#13 379353061#15 379353061#16 379353061#18 379353061#19 379353061#20 379353061#21 379353061#23 379353061#26 379353061#27 379353061#28 379353061#29 379353061#30 396529516#0 396529516#2 396529516#3 396529517#0 396529517#2 396529517#4 396529517#6 396529517#7 962824620#1 396529515#0 396529515#1 51731907#0 51731907#1 51731907#3 51731907#5 51731907#6 51731907#7 51731907#8 51731907#9 51731907#10 51731907#11 51731907#12 51731907#13 51731907#15 51731907#16 51731907#17 51731907#18 51731907#19 51731907#20 51731907#21 51731907#22 437844963#6 437844963#7 437844963#8 437844963#11 437844963#12 437844963#14 437844963#15 437844963#17 437844963#18 437844963#19 437844963#20 437844963#21 437844963#22 437844963#23 437844963#24 437844963#25 98288563#3 98288563#7 98288563#8 98288563#9 98288563#10 183686744#21 183686744#24 183686744#26 183686744#27 183686744#29 183686744#32 183686744#35 183686744#37 183686744#39 183686744#42"/>
    </vehicle>
    <vehicle id="23938" depart="7204.44" departLane="random" departPos="last" departSpeed="avg" insertionChecks="none">
        <route edges="-200239781#26 -200239781#25 388180905#1 961596453#0 961596453#1 198748412#0 198748412#1 198748412#3 198748412#4 198748412#5 198748412#6 198748412#7 198748412#8 198748412#9 198748412#10 198748412#11 198748412#12 388180907#0 388180907#1 388180908 388180911#0 388180911#1 388180911#3 388180911#4 388180911#6 388180903#0 388180903#1 388180903#2 388180903#3 388180903#6 976806605#0 51080881#1 51080881#2 51080881#3 51080881#4 51080881#5 51080881#6 971295527#1 303011011#0 303011011#1 43692529 198748425 303010993 47183325#0 47183325#1 835253264 889086219#0 889086219#2 889086219#3 889086219#4 889086219#5 889086219#6 889086219#8 889086219#10 889086219#12 889086219#13 889086219#15 30334667 51817278#1 51817278#4 51817278#6 163165896#8 1160588192#1 1160588192#4 1160588192#5 1160588192#6 50365473#15 50365473#19 50365473#20 50365473#22 50365473#24 50365473#26 50365473#29 50365473#32 230520083#0 230520083#2 230520083#5 230520083#9 230520083#11 299766570#0 299766570#2 299766570#4 980382973#0 147608237#0 147608237#5 147608237#7 147608237#8 147608237#9 147608237#11 378668897 50226540 53004953#1 437893392 50226538#1 850421055 99358417#0 99358417#1 721526373#1 721526373#2 721526374#1 242184537 99340460#34 99340460#35 41311675#0 41311675#2 753620942#0 753620942#2 753620942#4 753620942#6 1132618889#0 1132614353#0 1132614355#1 514371943#0 514371943#2"/>
    </vehicle>
    <vehicle id="23939" depart="7204.92" departLane="random" departPos="last" departSpeed="avg" insertionChecks="none">
        <route edges="876397432#2 876397432#3 242303196#0 242303196#1 44638317#5 44638317#6 421860247#0 421860247#1 421860247#2 421860247#3 421860247#5 421860247#6 421860249 156494825 156494828#1 26408827#3 26408827#4 50224242#1 50224242#2 50224242#3 183688387 721526373#1 721526373#2 721526374#1 242184537 99340460#34 99340460#35 41311675#0 41311675#2 753620942#0 753620942#2 753620942#4 753620942#6 1132618889#0 753620642#0 753620642#2 183680186#3 183680186#5 183680186#7 183680186#9 183680186#10"/>
    </vehicle>
    <vehicle id="23940" depart="7205.12" departLane="random" departPos="last" departSpeed="avg" insertionChecks="none">
        <route edges="144893877#7 144893877#8 144893877#9 144893877#10 144893877#12 144893877#14 144893877#15 144893877#18 144893877#20 144893877#21 144893877#22 144893877#23 144893877#24 144893877#25 144893877#26 276186037#1 379862267#0 379862267#1 379862267#2 379862267#3 379862267#4 379862267#5 379862267#6 -100287323#22 -100287323#20 -100287323#19 -100287323#18 -100287323#17 -100287323#15 -100287323#14 -100287323#13 -100287323#12 -100287323#10 -100287323#9 -100287323#7 -100287323#6 -100287323#5 -100287323#4 -100287323#2 -100287323#1 -100287323#0 -47122743#13 -47122743#12 -47122743#11 -47122743#10 -47122743#8 -47122743#7 -47122743#5 -47122743#3 -47122743#2 -47122743#1 -47122743#0 303011002#0 303011002#1 303011002#2 303011002#3 961596459 100399940 139253137#0 139253137#1 139253137#2 139253137#3 139253137#4 139253137#5 139253137#6 139253137#7 139253137#8 961596457#0 961596457#1 961596457#2 961596457#3 961596457#5 310476736#1 310476736#3 310476736#4 310476736#5 310476736#6 310476736#7 310476736#8 310476736#9 310476736#10 310476736#11 239288141#0 239288141#2 239288141#5 239288141#7 239288141#8 239288141#9 889085343#0 889085343#2 889085343#4 889085343#7 889085343#9 889085343#12 889085343#14 889085343#15 889085343#17 26213799#1 26213799#3 26213799#7 26213799#10 26229042#0 26229042#4 26229042#7 26229042#10 26229042#13 26229042#16 26229042#19 26229042#22 198539244#0 239288142#0 26186663#0 26186663#3 26186663#6 26186663#10 26186663#12 26186663#14 26186663#16 26186663#17 26186663#20 26186663#22 26186663#24 26186663#26 26186663#27 26186663#29 26186663#31 26186663#33 26186663#35 1065435841#0 1065435841#2 1024115710 48208827#3 48208827#5 48208827#6 48208827#8 48208827#10 48208827#11 48208827#12 48208827#14 48208827#18 48208827#20 48208827#21 48208827#22 48208827#23 48208827#24 48208827#25 48208827#26 48208827#27 48208827#28 48208827#29 48208827#30 48208827#31 48208827#32 48208827#33 48208827#34 48208827#35 48208827#36 48208827#38 48208827#39 48208827#40 48208827#41 47266323#0 47266323#1 47266323#2 47266323#3 47266323#4 47266323#5 47266323#6 47266323#7 47266323#8 47266323#10 47266323#12 47266323#14 47266323#15 47266323#16 47266323#17 47266323#18 47266323#19 47266323#20 609441766#0 609441766#1 609441766#2 609441766#3 609441766#6 609441766#7 609441766#10 609441766#11 609441766#13 609441766#14 228020862#1 228020862#3 228020862#4 228020862#5 228020862#6 228020862#7 228020862#8 228020862#9 228020862#10 228020862#12 228020868#0 228020868#1 228020868#2 228020868#3 228020868#4 228020864 228020865#0 856447044#10 856447044#11 856447044#12 856447044#13 915816408#1 915816408#2"/>
    </vehicle>
    <vehicle id="23941" depart="7205.61" departLane="random" departPos="last" departSpeed="avg" insertionChecks="none">
        <route edges="48378603#1 48378603#3"/>
    </vehicle>
    <vehicle id="23942" depart="7205.77" departLane="random" departPos="last" departSpeed="avg" insertionChecks="none">
        <route edges="608793060#2 608793060#3 608793060#4 747493653#0 747493653#1 747493653#2 747493653#3 747493653#4 747493653#5 747493653#6 747493653#7 747493653#8 747493653#9 747493653#10 747493653#11 747493653#12 747493653#13 747493653#14 48986406#0 48986406#1 48986406#2 48986406#3 396529549#0 396529549#1 396529549#2 396529549#3 396529549#4 396529549#5 396529549#6 396529549#7 396529549#8 396529549#10 424940141#0 424940141#1 424940141#2 424940141#3 424940141#4 424940141#5 424940141#6 424940141#7 424940141#8 122790410#1 122790410#2 122790410#4 122790410#5 122790410#6 122790410#7 122790410#8 122790410#9 122790410#10 379355065 263487888#1 263487888#2 263487888#3 263487888#4 263487888#7 263487888#9 506611801#1 506611801#4 506611801#5 47576124#1 47576124#4 47576124#5 47576124#8 47576124#12 47576124#13 47576124#16 47576124#17 47576124#20 47576124#21 47576124#22 47576124#23 47576124#25 47576124#28 47576124#29 47576124#31 47576124#32 47576124#33 47576124#34 59079429#42 59079429#44 747491257#0 747491257#2 44354137#0 44354137#4 44354137#6 44354137#7 1043611561#0 1043611561#1 340288029 970420625#0 970420625#1 758606739#2 837824635#1 231167046#0 231167046#1 231167046#2 231167046#3 49777868#0 49777868#1 51499416#0 51499416#1 51499416#2"/>
    </vehicle>
    <vehicle id="23943" depart="7206.03" departLane="random" departPos="last" departSpeed="avg" insertionChecks="none">
        <route edges="946535869#1 946535867#3 946535867#4 -244655611#8 -244655611#6 -244655611#5 -244655611#4 -244655611#3 -244655611#1 -758633400#3 -758633400#1 -758633400#0"/>
    </vehicle>
    <vehicle id="23944" depart="7206.59" departLane="random" departPos="last" departSpeed="avg" insertionChecks="none">
        <route edges="99183071#13 99183071#14 99183071#15 964210199#8 384646666#1 384646666#2 384646666#3 384646666#4 384646666#6 384646666#8 384646666#9 384646666#10 384646666#11 964210200#0 964210200#2 986658054 774634304#0 774634304#1 774634304#2 774634304#3 41955106#0 41955106#2 41955106#3 41955106#5 41955106#7 163165896#0 163165896#1 163165896#4 163165896#5 163165896#8 1160588192#1 1160588192#4 1160588192#5 1160588192#6 1160588192#8 1160588192#9 26213877#1 26213877#2 26213877#3 26213877#4 26213877#6 26213877#9 26213877#11 26213877#12 26213877#15 26213877#16 26213877#17 26213877#18 26213877#19 26213877#20 26213877#22 26213877#23 26213877#24 26213877#25 26213877#27 26213877#29 26213877#31 26213877#32 274251592#0 274251592#1 274251592#2 274251569#0 274251569#2 274251569#3 274251569#5 274251569#6 274251569#7 274251569#8 274251569#9 274251569#10 274251569#11 274251569#12 274251569#13 274251569#14 274251569#15 274251569#16 274251569#17 274251569#18 274251569#19 274251569#20 274251569#22 552283791#0 552283791#3 552283791#5 552283791#6 552283791#8 552283791#10 552283791#11 57359979#6 57359979#7 57359979#8"/>
    </vehicle>
    <vehicle id="23945" depart="7206.85" departLane="random" departPos="last" departSpeed="avg" insertionChecks="none">
        <route edges="26408816#1 288275026 288593801 288275174 837822610#1 288275175 288281979#1 288281979#2 288281979#3 288587886 288275176 288275173 288587881#0 288587881#1 1068062326 288587879"/>
    </vehicle>
    <vehicle id="23946" depart="7206.90" departLane="random" departPos="last" departSpeed="avg" insertionChecks="none">
        <route edges="26408819#1 26408819#2 685691683 48378603#1 48378603#3"/>
    </vehicle>
    <vehicle id="23947" depart="7206.97" departLane="random" departPos="last" departSpeed="avg" insertionChecks="none">
        <route edges="641820150#8 641820150#9 641820150#10 828700666#6 828700666#8 1147974332#0 1147974332#2 1147974332#4 1147974332#5 1147974332#7 1147974332#9 1147974332#11 1147974332#12 1147974332#13 1147974332#14 1147974332#15 639966869#2 639966869#3 639966869#4 639966869#5 639966869#6 99183072#0 99183072#1 99183072#2 99183072#3 99183072#4 99183072#5 99183072#6 99183072#7 99183072#8 99183072#9 99183072#10 99183072#11 99183072#13 99183072#14 99183072#15 99183072#16 99183072#17 99183072#18 99183072#19"/>
    </vehicle>
    <vehicle id="23948" depart="7207.15" departLane="random" departPos="last" departSpeed="avg" insertionChecks="none">
        <route edges="288584432 837818369#1 837818369#2 1069206791#0 99354876 183687501 435743869 183687503 183687496#1 183679121 1010647054 1196702555#1 1196702555#4 1196702555#6 1196702555#7 1196702555#8 1196702555#10 1196702555#12 1196702555#13 99340462#0 99340462#2 99340462#3 99340462#4 99340462#5 99340462#6 99340462#7 99340462#8 99340462#9"/>
    </vehicle>
    <vehicle id="23949" depart="7208.04" departLane="random" departPos="last" departSpeed="avg" insertionChecks="none">
        <route edges="437718725#1 437718725#2 437718725#3 1069176993 26408821#0 26408821#1 26408821#2 50197520 50278635#0 50278635#1 50278635#3 27836822#0 27836822#1 50071372 50159880#1 847353691#1 435409944#1"/>
    </vehicle>
    <vehicle id="23950" depart="7208.08" departLane="random" departPos="last" departSpeed="avg" insertionChecks="none">
        <route edges="247172492#2 247172492#7 247172492#10 247172492#11 247172492#15 247172492#16 247172492#18 247172492#19 247172492#21 247172492#23 247172492#24 247172492#27 247172492#28 247172492#29 247172492#30 247172492#31 100568069#0 100568069#1 100568069#3 100484546#0 100484546#1 100484546#3 795839867#0 795839867#1 795839867#3 147667688#1 147667690#1 147667690#2 909008747#0 909008747#1 909008747#2 909008747#3 721121505#0 721121505#1 721121505#2 721121505#3 721121505#4 721121505#5 909008721#0 909008721#1 909008721#2 909008721#3 833393655 833393659 127067570#3 127067570#4 127067570#5 378692490 721121517#31 721121517#33 721121517#34 721121517#35 721121517#36 721121517#37 721121517#38 721121517#39 721121517#40 721121517#41 721121517#42 721121517#43 99183070#10 99183070#12 425544440#2 425544440#4 425544440#7 425544440#8 425544440#9 425544440#11 425544440#13 425544440#14 425544440#19 425544440#22 425544440#25 425544440#26 425544440#28 425544440#30 425544438#1 425544438#3 425544438#4 221325830#6 221325830#8 221325830#9 221325830#10 221325830#11 221325830#15 221325830#16 221325830#18 221325830#20 221325830#21 29241976#69 43024199#1 43024199#2 43024199#4 43024199#6 43024199#7 147608237#5 147608237#7 147608237#8 147608237#9 147608237#11 378668897 50226540 53004953#1 437893392 50226538#1 850421055 99358417#0 828678493 721526370#1 435749438#0 435749438#1 435749438#2 50224247#1 807961215 421860246#1 421860245#1 150869534#1 150869534#4 150869534#5 150869534#6 150869534#7 150869534#8 150869534#9 150869534#10 150869534#11 150869534#13 41317225#1 507904613 157566829#0 157566829#2 157566829#3 157566829#4 157566829#5 157566829#6 157566829#7 157566829#8 157566829#9 157566829#10 157566829#11 157566829#13 157566829#15 157566829#16 157566829#17 157566829#18 157566829#19 157566829#20 157566829#21 157566829#22 157566829#23 157566829#24 157566829#25 157566829#26"/>
    </vehicle>
    <vehicle id="23951" depart="7208.11" departLane="random" departPos="last" departSpeed="avg" insertionChecks="none">
        <route edges="171574787#0 171574787#1 171574795#1 572952537#0 572952537#1 762870199#1 762870199#2 762870199#3 762870206#1 762870206#2 183686731#1 183686731#2 183686734#0 183686734#1 99365666#1 99365666#2 99365666#4 99365666#5 182172392#1 182172392#2 182172392#3 182172392#4 182172392#6 182172392#8 182172392#9 182172392#10 182172392#11 182172392#13 1074436852 26405753#1 26405753#2 795839876 39661454 758508728#0 758508728#1 758508728#2 758508728#3 758508728#4 758508728#5 795839871#0 795839871#1 795839871#2 795839871#3 795839871#4 795839871#5 795839871#6 795839871#7 795839871#8 795839871#9 795839871#10 795839871#11 795839871#14 795839871#15 795839871#16 795839871#18 795839871#19 49478320#14 49478320#15 49478320#16 49478320#18 837775248#0"/>
    </vehicle>
    <vehicle id="23952" depart="7208.19" departLane="random" departPos="last" departSpeed="avg" insertionChecks="none">
        <route edges="-200532131#1 607553540#1 277940650#0 277940650#2 1057608449 1057608446 1057608447 49455934#1 49455934#4 49455934#5 1182279679#1 199025655#0 199025655#1 29241976#26 29241976#27 29241976#28 29241976#29 29241976#30 29241976#31 29241976#32 29241976#35 29241976#37 29241976#39 29241976#41 29241976#42 29241976#43 29241976#45 29241976#47 29241976#48 29241976#50 29241976#51 29241976#54 29241976#56 29241976#59 29241976#61 29241976#62 29241976#64 29241976#66 29241976#67 29241976#69 1042819573#0 1042819573#1 1042819573#2 1042819573#4 1042819573#7 1042819573#9 299766537#3 299766537#5 299766537#6 299766537#7 299766537#8 299766537#9 299766537#10 299766537#13 641820142#0 641820142#2 828689155#0 828689155#1 828695033#0 828695033#2 828695033#3 828695033#4 648456497#0 378648327 50278635#1 50278635#3 27836822#0 88222482 647803642#3 647803642#4 972706828#2 972706828#3 900324824 900324822#0 900324822#1 900324822#2 900324822#3 900324822#4 900324822#5"/>
    </vehicle>
    <vehicle id="23953" depart="7209.05" departLane="random" departPos="last" departSpeed="avg" insertionChecks="none">
        <route edges="437714326#1 50071375#0 50071375#1 50159880#1 847353691#1 922874827"/>
    </vehicle>
    <vehicle id="23954" depart="7210.93" departLane="random" departPos="last" departSpeed="avg" insertionChecks="none">
        <route edges="177122804#16 177122804#17 177122804#18 177122804#20 177122804#21 177122804#22 177122804#23 64407136#5 64407136#6 64407136#7 856447046#1 856447046#2 752836072#1 752836072#2 752836072#3 752836072#4 -777529734#1 -777529734#0 -157566829#27 -157566829#26 -157566829#25 -157566829#24 -157566829#23 -157566829#22 -157566829#21 -157566829#20 -157566829#19 -157566829#18 -157566829#17 -157566829#16 -157566829#15 -157566829#13 -157566829#11 -157566829#10 -157566829#9 -157566829#8 -157566829#7 -157566829#6 -157566829#5 -157566829#4 -157566829#3 -157566829#2 -157566829#0 -155599368 -41317225#1 667850743#13 667850743#15 667850743#16 667850743#17 667850743#18 667850743#19 667850743#20 667850743#21 667850743#22 667850743#23 667850743#24 667850743#25 667850743#26 421860245#3 421860245#4 421860245#5 421860245#6 177122789#1 242303196#3 242303196#4 242303196#5 242303196#6 177122779#8 177122779#9 177122779#10 177122779#11 177122779#12 177122779#13 -1061275523#16 -1061275523#15 -1061275523#14 -1061275523#13 -1061275523#12 -1061275523#11 -1061275523#10 -1061275523#8 -1061275523#7 -1061275523#6 -1061275523#5 -1061275523#4 -1061275523#3 -1061275523#2 -1061275523#0"/>
    </vehicle>
    <vehicle id="23955" depart="7211.81" departLane="random" departPos="last" departSpeed="avg" insertionChecks="none">
        <route edges="50159875#1 44685053#1 44685053#2"/>
    </vehicle>
    <vehicle id="23956" depart="7212.47" departLane="random" departPos="last" departSpeed="avg" insertionChecks="none">
        <route edges="639674356#0 639674356#1 639674356#2 639674356#3 648474718#0 648474718#1 648474718#2 648474718#3 648474718#4 648474718#5 648474718#6 648474718#7 900324819 972706826#0 972706826#1 972706826#2 972706826#3 900324827#2 900324827#3 900324827#4 648190634 961583094#1 758628997#1 43677347#1 43677347#2 43677347#4 43677347#5 43677347#6 43677347#7 43677347#8 43677347#9 43677347#10 43677347#11 43677347#12 43677347#13 43677347#14 551017567 551017569#0 551017569#1 551017569#3 551017569#5 639975088#0 639975088#1 639975088#2 639975088#3 639975088#4 639975088#5 639975091#0 639975091#1 639975091#2 639975091#3 639975091#4 639975091#5 639975091#6 639975091#7 639674365#1 639674365#3 639674365#4 51808520#1 51808520#3 758515598#1 758515598#2 758515598#3 758515598#4 758515598#5 758515598#7 758515598#8 758515598#9 758515598#10 758515598#11 758515598#12 758515598#13 758515598#14 642209345#1 642209345#2 642209345#3 642209345#4 642209345#5 51808525#1 51808525#2 200375353#0 200375353#2 200375353#3 200375353#5 200375353#7 200375353#8 200375353#10 200375353#12 200375353#13 200375353#14 200375353#15 200375353#16 758633402#0 758633402#2 758633402#3 758633402#4 758633402#5 758633402#7 758633402#8 758633402#9 758633402#10 758633402#11 758633402#12 758633402#13 306803936#0 306803936#1 306803936#2 306803936#3 199423988#1 199408863 199408863.100 306803938#0 306803938#1 306803938#2 306803938#3 306803938#6 -970248771#5 -970248771#4 -970248771#2 -970248771#0"/>
    </vehicle>
    <vehicle id="23957" depart="7212.57" departLane="random" departPos="last" departSpeed="avg" insertionChecks="none">
        <route edges="171574787#0 171574787#1 171574795#1 572952537#0 572952537#1 762870199#1 762870199#2"/>
    </vehicle>
    <vehicle id="23958" depart="7213.59" departLane="random" departPos="last" departSpeed="avg" insertionChecks="none">
        <route edges="437714326#1 437714326#2 50071368#0 50071368#1 50071368#2 50071368#3 49131750#0 49131750#1 99148462 828688421 828689155#0 828689155#1 648464071#0 648464071#2 648464071#3 648464071#6 648464071#9 648424858#0 89231328#0 89231328#2 89231328#3 89231328#5 89231328#7 89231328#10 89231328#13 89231328#15 163165910#0 163165910#1 163165910#3"/>
    </vehicle>
    <vehicle id="23959" depart="7214.49" departLane="random" departPos="last" departSpeed="avg" insertionChecks="none">
        <route edges="-750493999#8 -750493999#7 -750493999#6 -750493999#5 -750493999#4 -750493999#3 -750493999#2 -750493999#0 -147617283#6 -147617283#4 -147617283#3 -147617283#2 -147617283#1 -147617283#0 37035659#0 37035659#1 276186036#1 147667686 147667680#1 147667680#2 147667680#3 147667680#5 147667680#6 147667680#7 147667680#9 752938844#0 752938844#2 752938844#4 147667687#0 276479924#0 276479924#1 276479924#3 276479924#4 276183243#1 276183243#2 276183243#3 276183243#4 276183243#5 276183243#6 276183243#7 276479925#0 276479925#1 276479925#2 276479925#3 276479925#4 276479925#5 226504437 144893889#1 750634597 144898736#1 144898736#2 144898736#3 144898736#4 144898736#5 144898736#6 144898736#7 144898736#8 144898736#10 144898736#11 144898736#12 144898736#13 144898736#14 226504435#0 226504435#2 226504435#3 392729440#1 392729434 276186034#0 276186034#1 276186034#2 276186034#4 276186034#5 276186034#6 276186034#7 276186034#8 276186034#11 276186034#12 276186034#13 276186034#18 412379261#0 412379261#1 412379261#2 412379261#3 412379261#4 412379261#5 412379261#6 100484568#1 100484568#2 100484568#3 100484568#4 100484568#5 49478320#0 49478320#1 49478320#2 49478320#3 49478320#5 49478320#6 49478320#7 49478320#8 49478320#9 49478320#10 49478320#11 49478320#12 49478320#14 49478320#15 49478320#16 49478320#18 837775248#0 837775248#1 49393578#0 49393578#1 49393578#3 49393578#4 49393578#5 49393578#6 49393578#8 49393578#9 49393578#11 49393578#13 49393578#14 49393578#15 49393578#16 49393578#17 49393578#18 49393578#19 49393578#20 49393578#21 49393579#1 49393579#2 437892676#7 378760671#1 378760671#2 378760671#3 378760671#4 378760671#5 378760671#6 378760671#7 29241976#1 29241976#4 29241976#5 29241976#6 29241976#7 29241976#8 29241976#9 29241976#10 29241976#12 29241976#13 29241976#14 29241976#15 29241976#16"/>
    </vehicle>
    <vehicle id="23960" depart="7214.71" departLane="random" departPos="last" departSpeed="avg" insertionChecks="none">
        <route edges="50827349#8 50827349#9 99183072#13 99183072#14 99183072#15 99183072#16 99183072#17 99183072#18 99183072#19 99183072#20 99183072#21 99183072#22 186151401#8 186151401#9 186151401#10 648199241#0 587475519 48378603#1 48378603#3"/>
    </vehicle>
    <vehicle id="23961" depart="7214.83" departLane="random" departPos="last" departSpeed="avg" insertionChecks="none">